Version 4
SHEET 1 2164 680
WIRE 1392 -272 1040 -272
WIRE 1520 -272 1392 -272
WIRE 1264 -240 1168 -240
WIRE 1520 -208 1520 -272
WIRE -544 -192 -560 -192
WIRE 1040 -192 1040 -272
WIRE 1136 -192 1040 -192
WIRE 1264 -192 1264 -240
WIRE -48 -160 -176 -160
WIRE 16 -160 -48 -160
WIRE 416 -160 16 -160
WIRE -560 -144 -560 -192
WIRE -560 -144 -592 -144
WIRE -480 -144 -480 -192
WIRE -416 -144 -480 -144
WIRE -560 -112 -560 -144
WIRE -480 -112 -480 -144
WIRE -48 -112 -48 -160
WIRE 416 -112 416 -160
WIRE 432 -112 416 -112
WIRE 752 -112 720 -112
WIRE 848 -112 752 -112
WIRE 1040 -112 1040 -192
WIRE 1040 -112 848 -112
WIRE -672 -96 -672 -144
WIRE 16 -96 16 -160
WIRE 752 -96 752 -112
WIRE 848 -96 848 -112
WIRE -416 -80 -416 -144
WIRE -368 -80 -416 -80
WIRE -176 -80 -176 -160
WIRE -176 -80 -288 -80
WIRE 1520 -80 1520 -128
WIRE -368 -48 -416 -48
WIRE -176 -48 -288 -48
WIRE 16 -32 16 -48
WIRE 416 -16 416 -112
WIRE 432 -16 416 -16
WIRE 752 -16 752 -32
WIRE 752 -16 720 -16
WIRE -672 16 -672 -16
WIRE -416 16 -416 -48
WIRE -416 16 -672 16
WIRE 1040 32 1040 -48
WIRE 1136 32 1040 32
WIRE 1392 32 1392 -272
WIRE 1392 32 1328 32
WIRE -176 48 -176 -48
WIRE -48 48 -48 -48
WIRE -48 48 -176 48
WIRE 16 48 16 -32
WIRE 16 48 -48 48
WIRE 576 48 16 48
WIRE 1168 64 1168 -240
WIRE 1200 64 1200 32
WIRE 1200 64 1168 64
WIRE -176 80 -176 48
WIRE 1168 112 1168 64
WIRE 1184 112 1168 112
WIRE 1264 112 1264 32
WIRE 1392 112 1264 112
WIRE 1520 112 1520 -16
WIRE 1520 112 1392 112
WIRE 1168 160 1168 112
WIRE -48 224 -48 48
WIRE 848 224 848 -32
WIRE 848 224 -48 224
WIRE 1040 224 1040 32
WIRE 1040 224 848 224
WIRE 1168 224 1040 224
WIRE 1392 224 1392 176
WIRE 1392 224 1168 224
FLAG -176 80 0
SYMBOL voltage -672 -112 R0
WINDOW 123 -67 42 Left 2
WINDOW 39 0 0 Left 0
WINDOW 0 -67 14 Left 2
WINDOW 3 -67 70 Left 2
SYMATTR InstName V1
SYMATTR Value SINE(0 325 50)
SYMBOL res -576 -160 R90
WINDOW 0 0 56 VBottom 2
WINDOW 3 32 56 VTop 2
SYMATTR InstName R1
SYMATTR Value 100
SYMATTR SpiceLine tol=5 pwr=2
SYMBOL res -464 -128 R90
WINDOW 0 0 56 VBottom 2
WINDOW 3 32 56 VTop 2
SYMATTR InstName R2
SYMATTR Value 1.2m
SYMATTR SpiceLine tol=10 pwr=0.5
SYMBOL polcap 0 -96 R0
WINDOW 3 24 56 Left 2
SYMATTR Value 68µ
SYMATTR InstName C2
SYMATTR Description Capacitor
SYMATTR Type cap
SYMATTR SpiceLine V=35 Irms=3.3 Rser=0.0102 Lser=3.75n mfg="Würth Elektronik" pn="875075655002 WCAP-PSLC 8 x 11,7" type="Al polymer"
SYMBOL res 1504 -224 R0
SYMATTR InstName R3
SYMATTR Value 10
SYMATTR SpiceLine tol=10 pwr=0.25
SYMBOL LED 1504 -80 R0
WINDOW 3 -89 99 Left 2
SYMATTR Value STW8B12C
SYMATTR InstName D1
SYMBOL cap -480 -208 R90
WINDOW 0 0 32 VBottom 2
WINDOW 3 32 32 VTop 2
SYMATTR InstName C1
SYMATTR Value 1µ
SYMATTR SpiceLine V=310 Irms=0 Rser=0.053 Lser=13.1n mfg="Würth Elektronik" pn="890334026027 WCAP-FTXX 22.5x26x20x11" type="X2"
SYMBOL zener -32 -48 R180
WINDOW 0 24 64 Left 2
WINDOW 3 24 0 Left 2
SYMATTR InstName D7
SYMATTR Value UMZ5_1N
SYMATTR Description Diode
SYMATTR Type diode
SYMBOL PowerProducts\\LT1761-5 576 -64 R0
SYMATTR InstName U1
SYMBOL cap 736 -96 R0
SYMATTR InstName C3
SYMATTR Value 0.01µ
SYMBOL polcap 832 -96 R0
WINDOW 3 24 56 Left 2
SYMATTR Value 10µ
SYMATTR InstName C4
SYMATTR Description Capacitor
SYMATTR Type cap
SYMATTR SpiceLine V=25 Irms=27m Rser=2.2252 Lser=835p mfg="Würth Elektronik" pn="865090440003 WCAP-ASLU 4x5,5" type="Al electrolytic"
SYMBOL TLC55X 1232 -80 R270
SYMATTR InstName U2
SYMBOL cap 1024 -112 R0
SYMATTR InstName C5
SYMATTR Value 100n
SYMBOL cap 1152 160 R0
SYMATTR InstName C6
SYMATTR Value 1n
SYMBOL res 1280 96 R90
WINDOW 0 0 56 VBottom 2
WINDOW 3 32 56 VTop 2
SYMATTR InstName R4
SYMATTR Value 18.8k
SYMBOL cap 1376 112 R0
SYMATTR InstName C7
SYMATTR Value 10n
SYMBOL abs6 -336 -64 R0
WINDOW 39 71 -220 Center 2
SYMATTR InstName U3
TEXT -760 -688 Left 2 !.tran 1
TEXT -760 -664 Left 2 !.options gmin=1e-10
